*NODE, NSET=Nall
    1,0.000000000000e+00,0.000000000000e+00,1.270000000000e-02
    2,0.000000000000e+00,1.270000000000e-02,1.270000000000e-02
    3,0.000000000000e+00,1.270000000000e-02,0.000000000000e+00
    4,0.000000000000e+00,0.000000000000e+00,0.000000000000e+00
    5,4.500000000000e-02,1.270000000000e-02,1.270000000000e-02
    6,4.500000000000e-02,0.000000000000e+00,1.270000000000e-02
    7,4.500000000000e-02,1.270000000000e-02,0.000000000000e+00
    8,4.500000000000e-02,0.000000000000e+00,0.000000000000e+00
    9,0.000000000000e+00,2.540000000000e-02,1.270000000000e-02
    10,0.000000000000e+00,2.540000000000e-02,0.000000000000e+00
    11,4.500000000000e-02,2.540000000000e-02,1.270000000000e-02
    12,4.500000000000e-02,2.540000000000e-02,0.000000000000e+00
    13,5.126900000000e-02,1.270000000000e-02,1.270000000000e-02
    14,5.382625000000e-02,6.526251000000e-03,1.270000000000e-02
    15,5.126900000000e-02,1.270000000000e-02,0.000000000000e+00
    16,5.382625000000e-02,6.526251000000e-03,0.000000000000e+00
    17,5.382625000000e-02,1.887375000000e-02,0.000000000000e+00
    18,5.382625000000e-02,1.887375000000e-02,1.270000000000e-02
    19,6.000000000000e-02,0.000000000000e+00,0.000000000000e+00
    20,6.000000000000e-02,0.000000000000e+00,1.270000000000e-02
** ... 3412 like lines cut
*ELEMENT, TYPE=C3D8, ELSET=Eall
    2891,    29,   313,  1820,   393,   312,  1309,  2089,  1439
    2892,   312,  1309,  2089,  1439,   311,  1310,  2090,  1440
    2893,   311,  1310,  2090,  1440,   310,  1311,  2091,  1441
    2894,   310,  1311,  2091,  1441,   309,  1312,  2092,  1442
    2895,   309,  1312,  2092,  1442,    30,   324,  1775,   381
    2896,   393,  1820,  1819,   394,  1439,  2089,  2085,  1443
    2897,  1439,  2089,  2085,  1443,  1440,  2090,  2086,  1444
    2898,  1440,  2090,  2086,  1444,  1441,  2091,  2087,  1445
    2899,  1441,  2091,  2087,  1445,  1442,  2092,  2088,  1446
    2900,  1442,  2092,  2088,  1446,   381,  1775,  1776,   382
    2901,   394,  1819,  1818,    43,  1443,  2085,  2081,   397
    2902,  1443,  2085,  2081,   397,  1444,  2086,  2082,   398
    2903,  1444,  2086,  2082,   398,  1445,  2087,  2083,   399
    2904,  1445,  2087,  2083,   399,  1446,  2088,  2084,   400
    2905,  1446,  2088,  2084,   400,   382,  1776,  1777,    44
    2906,    43,  1818,  1817,   510,   397,  2081,  2077,  1792
    2907,   397,  2081,  2077,  1792,   398,  2082,  2078,  1793
    2908,   398,  2082,  2078,  1793,   399,  2083,  2079,  1794
    2909,   399,  2083,  2079,  1794,   400,  2084,  2080,  1795
    2910,   400,  2084,  2080,  1795,    44,  1777,  1778,   501
*ELEMENT, TYPE=C3D6, ELSET=Eall
    2911,   510,  1817,   511,  1792,  2077,  1788
    2912,  1792,  2077,  1788,  1793,  2078,  1789
    2913,  1793,  2078,  1789,  1794,  2079,  1790
    2914,  1794,  2079,  1790,  1795,  2080,  1791
    2915,  1795,  2080,  1791,   501,  1778,   502
*ELEMENT, TYPE=C3D8, ELSET=Eall
    2916,   511,  1817,  1816,   512,  1788,  2077,  2073,  1784
    2917,  1788,  2077,  2073,  1784,  1789,  2078,  2074,  1785
    2918,  1789,  2078,  2074,  1785,  1790,  2079,  2075,  1786
    2919,  1790,  2079,  2075,  1786,  1791,  2080,  2076,  1787
    2920,  1791,  2080,  2076,  1787,   502,  1778,  1779,   503
*ELEMENT, TYPE=C3D6, ELSET=Eall
    2921,   512,  1816,   513,  1784,  2073,  1780
    2922,  1784,  2073,  1780,  1785,  2074,  1781
    2923,  1785,  2074,  1781,  1786,  2075,  1782
    2924,  1786,  2075,  1782,  1787,  2076,  1783
    2925,  1787,  2076,  1783,   503,  1779,   504
*ELEMENT, TYPE=C3D8, ELSET=Eall
    2926,   513,  1816,   376,    40,  1780,  2073,  1393,   372
    2927,  1780,  2073,  1393,   372,  1781,  2074,  1392,   373
    2928,  1781,  2074,  1392,   373,  1782,  2075,  1391,   374
    2929,  1782,  2075,  1391,   374,  1783,  2076,  1390,   375
    2930,  1783,  2076,  1390,   375,   504,  1779,   354,    38
    2931,    39,   376,  1816,   514,   363,  1393,  2073,  1799
    2932,   363,  1393,  2073,  1799,   364,  1392,  2074,  1798
    2933,   364,  1392,  2074,  1798,   365,  1391,  2075,  1797
    2934,   365,  1391,  2075,  1797,   366,  1390,  2076,  1796
    2935,   366,  1390,  2076,  1796,    37,   354,  1779,   509
    2936,   514,  1816,  1817,   515,  1799,  2073,  2077,  1803
    2937,  1799,  2073,  2077,  1803,  1798,  2074,  2078,  1802
    2938,  1798,  2074,  2078,  1802,  1797,  2075,  2079,  1801
    2939,  1797,  2075,  2079,  1801,  1796,  2076,  2080,  1800
    2940,  1796,  2076,  2080,  1800,   509,  1779,  1778,   508
    2941,   515,  1817,  1818,   516,  1803,  2077,  2081,  1807
    2942,  1803,  2077,  2081,  1807,  1802,  2078,  2082,  1806
    2943,  1802,  2078,  2082,  1806,  1801,  2079,  2083,  1805
    2944,  1801,  2079,  2083,  1805,  1800,  2080,  2084,  1804
    2945,  1800,  2080,  2084,  1804,   508,  1778,  1777,   507
** ... 20 like lines cut
*ELEMENT, TYPE=C3D6, ELSET=Eall
    2966,   377,  1414,   378,  1394,  2109,  1395
    2967,  1394,  2109,  1395,  1398,  2110,  1399
    2968,  1398,  2110,  1399,  1402,  2111,  1403
    2969,  1402,  2111,  1403,  1406,  2112,  1407
    2970,  1406,  2112,  1407,   359,  1365,   360
*ELEMENT, TYPE=C3D8, ELSET=Eall
    2971,   378,  1414,  1413,   379,  1395,  2109,  2105,  1396
    2972,  1395,  2109,  2105,  1396,  1399,  2110,  2106,  1400
    2973,  1399,  2110,  2106,  1400,  1403,  2111,  2107,  1404
    2974,  1403,  2111,  2107,  1404,  1407,  2112,  2108,  1408
    2975,  1407,  2112,  2108,  1408,   360,  1365,  1366,   361
*ELEMENT, TYPE=C3D6, ELSET=Eall
    2976,   379,  1413,   380,  1396,  2105,  1397
    2977,  1396,  2105,  1397,  1400,  2106,  1401
    2978,  1400,  2106,  1401,  1404,  2107,  1405
    2979,  1404,  2107,  1405,  1408,  2108,  1409
    2980,  1408,  2108,  1409,   361,  1366,   362
*ELEMENT, TYPE=C3D8, ELSET=Eall
    2981,   380,  1413,  1412,    35,  1397,  2105,  2101,   345
    2982,  1397,  2105,  2101,   345,  1401,  2106,  2102,   346
    2983,  1401,  2106,  2102,   346,  1405,  2107,  2103,   347
    2984,  1405,  2107,  2103,   347,  1409,  2108,  2104,   348
    2985,  1409,  2108,  2104,   348,   362,  1366,  1367,    36
    2986,    35,  1412,  1411,   339,   345,  2101,  2097,  1363
    2987,   345,  2101,  2097,  1363,   346,  2102,  2098,  1361
    2988,   346,  2102,  2098,  1361,   347,  2103,  2099,  1359
    2989,   347,  2103,  2099,  1359,   348,  2104,  2100,  1357
    2990,   348,  2104,  2100,  1357,    36,  1367,  1368,   329
    2991,   339,  1411,  1410,   340,  1363,  2097,  2093,  1364
    2992,  1363,  2097,  2093,  1364,  1361,  2098,  2094,  1362
    2993,  1361,  2098,  2094,  1362,  1359,  2099,  2095,  1360
    2994,  1359,  2099,  2095,  1360,  1357,  2100,  2096,  1358
    2995,  1357,  2100,  2096,  1358,   329,  1368,  1369,   330
    2996,   340,  1410,   292,    21,  1364,  2093,  1258,   270
    2997,  1364,  2093,  1258,   270,  1362,  2094,  1259,   269
    2998,  1362,  2094,  1259,   269,  1360,  2095,  1260,   268
    2999,  1360,  2095,  1260,   268,  1358,  2096,  1261,   267
    3000,  1358,  2096,  1261,   267,   330,  1369,   277,    22
** ... 50 like lines cut
*ELEMENT, TYPE=C3D6, ELSET=Eall
    3051,   246,  1305,   245,  1180,  2117,  1176
    3052,  1180,  2117,  1176,  1179,  2118,  1175
    3053,  1179,  2118,  1175,  1178,  2119,  1174
    3054,  1178,  2119,  1174,  1177,  2120,  1173
    3055,  1177,  2120,  1173,   242,  1302,   241
*ELEMENT, TYPE=C3D8, ELSET=Eall
    3056,   245,  1305,  1304,   244,  1176,  2117,  2113,  1172
    3057,  1176,  2117,  2113,  1172,  1175,  2118,  2114,  1171
    3058,  1175,  2118,  2114,  1171,  1174,  2119,  2115,  1170
    3059,  1174,  2119,  2115,  1170,  1173,  2120,  2116,  1169
    3060,  1173,  2120,  2116,  1169,   241,  1302,  1303,   240
*ELEMENT, TYPE=C3D6, ELSET=Eall
    3061,   244,  1304,   243,  1172,  2113,  1168
    3062,  1172,  2113,  1168,  1171,  2114,  1167
    3063,  1171,  2114,  1167,  1170,  2115,  1166
    3064,  1170,  2115,  1166,  1169,  2116,  1165
    3065,  1169,  2116,  1165,   240,  1303,   239
*ELEMENT, TYPE=C3D8, ELSET=Eall
    3066,   243,  1304,   271,    13,  1168,  2113,  1237,   223
    3067,  1168,  2113,  1237,   223,  1167,  2114,  1236,   224
    3068,  1167,  2114,  1236,   224,  1166,  2115,  1235,   225
    3069,  1166,  2115,  1235,   225,  1165,  2116,  1234,   226
    3070,  1165,  2116,  1234,   226,   239,  1303,   278,    15
    3071,    23,   271,  1304,   314,   282,  1237,  2113,  1329
    3072,   282,  1237,  2113,  1329,   281,  1236,  2114,  1330
    3073,   281,  1236,  2114,  1330,   280,  1235,  2115,  1331
    3074,   280,  1235,  2115,  1331,   279,  1234,  2116,  1332
    3075,   279,  1234,  2116,  1332,    25,   278,  1303,   323
    3076,   314,  1304,  1305,   315,  1329,  2113,  2117,  1325
    3077,  1329,  2113,  2117,  1325,  1330,  2114,  2118,  1326
    3078,  1330,  2114,  2118,  1326,  1331,  2115,  2119,  1327
    3079,  1331,  2115,  2119,  1327,  1332,  2116,  2120,  1328
    3080,  1332,  2116,  2120,  1328,   323,  1303,  1302,   322
    3081,   315,  1305,  1306,   316,  1325,  2117,  2121,  1321
    3082,  1325,  2117,  2121,  1321,  1326,  2118,  2122,  1322
    3083,  1326,  2118,  2122,  1322,  1327,  2119,  2123,  1323
    3084,  1327,  2119,  2123,  1323,  1328,  2120,  2124,  1324
    3085,  1328,  2120,  2124,  1324,   322,  1302,  1301,   321
** ... 35 like lines cut
*ELEMENT, TYPE=C3D6, ELSET=Eall
    3121,   231,  1263,   232,  1137,  2137,  1138
    3122,  1137,  2137,  1138,  1133,  2138,  1134
    3123,  1133,  2138,  1134,  1129,  2139,  1130
    3124,  1129,  2139,  1130,  1125,  2140,  1126
    3125,  1125,  2140,  1126,   215,  1232,   216
*ELEMENT, TYPE=C3D8, ELSET=Eall
    3126,   232,  1263,  1262,   233,  1138,  2137,  2133,  1139
    3127,  1138,  2137,  2133,  1139,  1134,  2138,  2134,  1135
    3128,  1134,  2138,  2134,  1135,  1130,  2139,  2135,  1131
    3129,  1130,  2139,  2135,  1131,  1126,  2140,  2136,  1127
    3130,  1126,  2140,  2136,  1127,   216,  1232,  1233,   217
*ELEMENT, TYPE=C3D6, ELSET=Eall
    3131,   233,  1262,   234,  1139,  2133,  1140
    3132,  1139,  2133,  1140,  1135,  2134,  1136
    3133,  1135,  2134,  1136,  1131,  2135,  1132
    3134,  1131,  2135,  1132,  1127,  2136,  1128
    3135,  1127,  2136,  1128,   217,  1233,   218
*ELEMENT, TYPE=C3D8, ELSET=Eall
    3136,   234,  1262,   278,    15,  1140,  2133,  1234,   226
    3137,  1140,  2133,  1234,   226,  1136,  2134,  1235,   225
    3138,  1136,  2134,  1235,   225,  1132,  2135,  1236,   224
    3139,  1132,  2135,  1236,   224,  1128,  2136,  1237,   223
    3140,  1128,  2136,  1237,   223,   218,  1233,   271,    13
    3141,    25,   278,  1262,   287,   279,  1234,  2133,  1257
    3142,   279,  1234,  2133,  1257,   280,  1235,  2134,  1252
    3143,   280,  1235,  2134,  1252,   281,  1236,  2135,  1247
    3144,   281,  1236,  2135,  1247,   282,  1237,  2136,  1242
    3145,   282,  1237,  2136,  1242,    23,   271,  1233,   276
    3146,   287,  1262,  1263,   288,  1257,  2133,  2137,  1256
    3147,  1257,  2133,  2137,  1256,  1252,  2134,  2138,  1251
    3148,  1252,  2134,  2138,  1251,  1247,  2135,  2139,  1246
    3149,  1247,  2135,  2139,  1246,  1242,  2136,  2140,  1241
    3150,  1242,  2136,  2140,  1241,   276,  1233,  1232,   275
    3151,   288,  1263,  1264,   289,  1256,  2137,  2141,  1255
    3152,  1256,  2137,  2141,  1255,  1251,  2138,  2142,  1250
    3153,  1251,  2138,  2142,  1250,  1246,  2139,  2143,  1245
    3154,  1246,  2139,  2143,  1245,  1241,  2140,  2144,  1240
    3155,  1241,  2140,  2144,  1240,   275,  1232,  1231,   274
** ... 2295 like lines cut
** Names based on Group_1
*NSET,NSET=Group_1 
    1, 
    2, 
    3, 
    4, 
    9, 
    10, 
    57, 
    58, 
    59, 
    60, 
    61, 
    62, 
    63, 
    64, 
    65, 
    66, 
    67, 
    68, 
    69, 
    70, 
** ... 46 like lines cut
** Names based on C3D8
*ELSET,ELSET=C3D8 
    2891, 
    2892, 
    2893, 
    2894, 
    2895, 
    2896, 
    2897, 
    2898, 
    2899, 
    2900, 
    2901, 
    2902, 
    2903, 
    2904, 
    2905, 
    2906, 
    2907, 
    2908, 
    2909, 
    2910, 
** ... 2500 like lines cut
** Names based on C3D6
*ELSET,ELSET=C3D6 
    2911, 
    2912, 
    2913, 
    2914, 
    2915, 
    2921, 
    2922, 
    2923, 
    2924, 
    2925, 
    2966, 
    2967, 
    2968, 
    2969, 
    2970, 
    2976, 
    2977, 
    2978, 
    2979, 
    2980, 
** ... 20 like lines cut
** Names based on Group_1F1
*ELSET,ELSET=Group_1F1 
    3171, 
    3189, 
    3207, 
    3225, 
    3243, 
    3261, 
    3279, 
    3297, 
    3315, 
    3333, 
    3351, 
    3369, 
    3387, 
    3405, 
    3423, 
    3441, 
    3459, 
    3477, 
    3495, 
    3513, 
** ... 5 like lines cut
** Names based on Group_1F4
*ELSET,ELSET=Group_1F4 
    4046, 
    4047, 
    4048, 
    4049, 
    4050, 
    4051, 
    4052, 
    4053, 
    4054, 
    4055, 
    4056, 
    4057, 
    4058, 
    4059, 
    4060, 
    4061, 
    4062, 
    4063, 
    4064, 
    4065, 
** ... 5 like lines cut
** Surfaces based on all
*SURFACE, NAME=all
    3171, S1
    3171, S6
    3171, S3
    3531, S1
    3531, S6
    4066, S4
    4066, S5
    3603, S1
    4046, S4
    3603, S4
    4046, S3
    3243, S1
    3243, S4
    3243, S3
    3548, S6
    4143, S5
    3641, S5
    4158, S5
    3188, S6
    4083, S5
** ... 1644 like lines cut
** Surfaces based on Group_1
*SURFACE, NAME=Group_1
    3171, S1
    3531, S1
    4066, S4
    3603, S1
    4046, S4
    3243, S1
    4070, S4
    4050, S4
    3261, S1
    3351, S1
    3441, S1
    3585, S1
    4051, S4
    3567, S1
    4056, S4
    3549, S1
    4061, S4
    3333, S1
    3423, S1
    3513, S1
** ... 30 like lines cut
** Surfaces based on C3D8
*SURFACE, NAME=C3D8
** Surfaces based on C3D6
*SURFACE, NAME=C3D6
** Surfaces based on Group_1F1
*SURFACE, NAME=Group_1F1
** Surfaces based on Group_1F4
*SURFACE, NAME=Group_1F4

*MATERIAL,NAME=steel
*ELASTIC
2.0000E+11,0.28


*DENSITY
7.8500E+03
*EXPANSION
1.3000E-05

*SOLID SECTION,MATERIAL=steel,ELSET=Eall

*BOUNDARY
Group_1,1,1,0
Group_1,2,2,0
Group_1,3,3,0

*STEP
*FREQUENCY
10
*NODE FILE
U
*EL FILE
S
*END STEP
