**
**   Structure: fluid flow between two cylinders.
**   Test objective: compressible Couette flow with fixed
**                   wall temperature.
**                   velocity at the inside: 0.5, temperature 1.
**                   velocity at the outside: 1., temperature 1.
**                   centrifugal force: 1 rad/s
**                   
*NODE, NSET=Nall
       1,-1.000000000000e+00,0.000000000000e+00,0.000000000000e+00
       2,-9.807852804032e-01,1.950903220161e-01,0.000000000000e+00
       3,-9.807852804032e-01,1.950903220161e-01,1.000000000000e-01
       4,-1.000000000000e+00,0.000000000000e+00,1.000000000000e-01
       5,-8.750000000000e-01,0.000000000000e+00,0.000000000000e+00
       6,-8.581871203528e-01,1.707040317641e-01,-2.220446049250e-16
       7,-8.581871203528e-01,1.707040317641e-01,1.000000000000e-01
       8,-8.750000000000e-01,0.000000000000e+00,1.000000000000e-01
       9,-7.500000000000e-01,0.000000000000e+00,0.000000000000e+00
      10,-7.355889603024e-01,1.463177415121e-01,5.551115123126e-17
      11,-7.355889603024e-01,1.463177415121e-01,1.000000000000e-01
      12,-7.500000000000e-01,0.000000000000e+00,1.000000000000e-01
      13,-6.250000000000e-01,0.000000000000e+00,0.000000000000e+00
      14,-6.129908002520e-01,1.219314512601e-01,0.000000000000e+00
      15,-6.129908002520e-01,1.219314512601e-01,1.000000000000e-01
      16,-6.250000000000e-01,0.000000000000e+00,1.000000000000e-01
      17,-5.000000000000e-01,0.000000000000e+00,0.000000000000e+00
      18,-4.903926402016e-01,9.754516100806e-02,0.000000000000e+00
      19,-4.903926402016e-01,9.754516100806e-02,1.000000000000e-01
      20,-5.000000000000e-01,0.000000000000e+00,1.000000000000e-01
** ... 300 like lines cut
*ELEMENT, TYPE=F3D8, ELSET=Eall
     1,     1,     2,     3,     4,     5,     6,     7,     8
     2,     5,     6,     7,     8,     9,    10,    11,    12
     3,     9,    10,    11,    12,    13,    14,    15,    16
     4,    13,    14,    15,    16,    17,    18,    19,    20
     5,     2,    21,    22,     3,     6,    23,    24,     7
     6,     6,    23,    24,     7,    10,    25,    26,    11
     7,    10,    25,    26,    11,    14,    27,    28,    15
     8,    14,    27,    28,    15,    18,    29,    30,    19
     9,    21,    31,    32,    22,    23,    33,    34,    24
    10,    23,    33,    34,    24,    25,    35,    36,    26
    11,    25,    35,    36,    26,    27,    37,    38,    28
    12,    27,    37,    38,    28,    29,    39,    40,    30
    13,    31,    41,    42,    32,    33,    43,    44,    34
    14,    33,    43,    44,    34,    35,    45,    46,    36
    15,    35,    45,    46,    36,    37,    47,    48,    38
    16,    37,    47,    48,    38,    39,    49,    50,    40
    17,    41,    51,    52,    42,    43,    53,    54,    44
    18,    43,    53,    54,    44,    45,    55,    56,    46
    19,    45,    55,    56,    46,    47,    57,    58,    48
    20,    47,    57,    58,    48,    49,    59,    60,    50
** ... 108 like lines cut
** Names based on wallin
*NSET,NSET=Nwallin 
17, 
18, 
19, 
20, 
29, 
30, 
39, 
40, 
49, 
50, 
59, 
60, 
69, 
70, 
79, 
80, 
89, 
90, 
107, 
108, 
** ... 44 like lines cut
** Names based on wallout
*NSET,NSET=Nwallout
151,
152,
1, 
2, 
3, 
4, 
21, 
22, 
31, 
32, 
41, 
42, 
51, 
52, 
61, 
62, 
71, 
72, 
81, 
82, 
** ... 44 like lines cut
*TRANSFORM,TYPE=C,NSET=Nall
0.,0.,0.,0.,0.,1.
*MATERIAL,NAME=AIR
*FLUID CONSTANTS
1.,1.,1.
*CONDUCTIVITY
1.
*SPECIFIC GAS CONSTANT
0.285714286d0
*SOLID SECTION,ELSET=Eall,MATERIAL=AIR
*PHYSICAL CONSTANTS,ABSOLUTE ZERO=0.
*INITIAL CONDITIONS,TYPE=PRESSURE
Nall,1.
*INITIAL CONDITIONS,TYPE=FLUID VELOCITY
Nall,1,0.
Nall,2,0.
Nall,3,0.
*INITIAL CONDITIONS,TYPE=TEMPERATURE
Nall,1.
*NSET,NSET=Nrad
187,183,179,175,171,89,87,85,83,81
*STEP,INCF=3000,SHOCK SMOOTHING=0.0
*CFD,STEADY STATE,COMPRESSIBLE
*DLOAD
Eall,CENTRIF,1.,0.,0.,0.,0.,0.,1.
*BOUNDARY
Nall,3,3,0.
Nwallin,1,1,0.
Nwallin,2,2,.5
Nwallin,8,8,1.
Nwallin,11,11,1.
Nwallout,1,1,0.
Nwallout,2,2,1.
Nwallout,11,11,1.
*NODE PRINT,FREQUENCYF=3000,NSET=Nrad,GLOBAL=YES
VF,PSF,TSF
***NODE FILE,FREQUENCYF=3000
**VF,PSF,TSF
*NODE FILE,FREQUENCYF=3000
VF,PSF,TSF
*END STEP
