SUMMARY OF JOB INFORMATION
  STEP      INC     ATT  ITRS     TOT TIME     STEP TIME      INC TIME
     1          1     1     3  0.100000E+00  0.100000E+00  0.100000E+00
     1          2     1     3  0.200000E+00  0.200000E+00  0.100000E+00
     1          3     1     3  0.350000E+00  0.350000E+00  0.150000E+00
     1          4     1     3  0.575000E+00  0.575000E+00  0.225000E+00
     1          5     1     3  0.912500E+00  0.912500E+00  0.337500E+00
     1          6     1     3  0.100000E+01  0.100000E+01  0.875000E-01
     2          1     1     3  0.110000E+02  0.100000E+02  0.100000E+02
     2          2     1     3  0.210000E+02  0.200000E+02  0.100000E+02
     2          3     1     3  0.360000E+02  0.350000E+02  0.150000E+02
     2          4     1     3  0.585000E+02  0.575000E+02  0.225000E+02
     2          5     1     3  0.922500E+02  0.912500E+02  0.337500E+02
     2          6     1     3  0.101000E+03  0.100000E+03  0.875000E+01
     3          1     1     3  0.111000E+03  0.100000E+02  0.100000E+02
     3          2     1     3  0.121000E+03  0.200000E+02  0.100000E+02
     3          3     1     3  0.136000E+03  0.350000E+02  0.150000E+02
     3          4     1     3  0.158500E+03  0.575000E+02  0.225000E+02
     3          5     1     3  0.192250E+03  0.912500E+02  0.337500E+02
     3          6     1     3  0.201000E+03  0.100000E+03  0.875000E+01
